VERS 151019 341 26546
MODE SEQ
NAME 
PFIL 0 0 0
LANG 0
UNIT MM X W X CM MR CPMM
ENPD 4.42E-1
ENVD 2.0E+1 1 0
GFAC 0 0
GCAT SCHOTT OHARA CDGM
RAIM 0 0 1 1 0 0 0 0 0
PUSH 0 0 0 0 0 0
SDMA 0 1 0
FTYP 1 0 5 1 0 0 0
ROPD 2
PICB 1
XFLN 0 0 1.0E-1 0 -1.E-1 1.1E-1 0 0 0 0 0 0
YFLN 0 1.0E-1 0 -1.E-1 0 0 1.1E-1 0 0 0 0 0
FWGN 1 1 1 1 1 1 1 1 1 1 1 1
VDXN 0 0 0 0 0 0 0 0 0 0 0 0
VDYN 0 0 0 0 0 0 0 0 0 0 0 0
VCXN 0 0 0 0 0 0 0 0 0 0 0 0
VCYN 0 0 0 0 0 0 0 0 0 0 0 0
VANN 0 0 0 0 0 0 0 0 0 0 0 0
WAVM 1 5.875618E-1 1
WAVM 2 5.5E-1 1
WAVM 3 5.5E-1 1
WAVM 4 5.5E-1 1
WAVM 5 5.5E-1 1
WAVM 6 5.5E-1 1
WAVM 7 5.5E-1 1
WAVM 8 5.5E-1 1
WAVM 9 5.5E-1 1
WAVM 10 5.5E-1 1
WAVM 11 5.5E-1 1
WAVM 12 5.5E-1 1
WAVM 13 5.5E-1 1
WAVM 14 5.5E-1 1
WAVM 15 5.5E-1 1
WAVM 16 5.5E-1 1
WAVM 17 5.5E-1 1
WAVM 18 5.5E-1 1
WAVM 19 5.5E-1 1
WAVM 20 5.5E-1 1
WAVM 21 5.5E-1 1
WAVM 22 5.5E-1 1
WAVM 23 5.5E-1 1
WAVM 24 5.5E-1 1
PWAV 1
POLS 1 0 1 0 0 1 0
GLRS 1 0
GSTD 0 100.000 100.000 100.000 100.000 100.000 100.000 0 1 1 0 0 1 1 1 1 1 1
NSCD 100 500 0 1.0E-3 5 1.0E-6 0 0 0 0 0 0 1000000 0 2
COFN QF "COATING.DAT" "SCATTER_PROFILE.DAT" "ABG_DATA.DAT" "PROFILE.GRD"
COFN COATING.DAT SCATTER_PROFILE.DAT ABG_DATA.DAT PROFILE.GRD
SURF 0
  COMM coverslip
  TYPE STANDARD
  FIMP 

  CURV 0.0 0 0 0 0 ""
  HIDE 0 0 0 0 0 0 0 0 0 0
  MIRR 2 0
  SLAB 1
  DISZ 1.3E-1
  GLAS ___BLANK 1 0 1.52 5.6E+1 0 0 0 0 0 0 
  DIAM 1.0E-1 0 0 0 1 ""
  POPS 0 0 0 0 0 0 0 0 1 1 1 1 0 0 0 0
SURF 1
  COMM oil
  STOP
  TYPE STANDARD
  FIMP 

  CURV 0.0 0 0 0 0 ""
  HIDE 0 0 0 0 0 0 0 0 0 0
  MIRR 2 0
  SLAB 2
  DISZ 1.4E-1
  GLAS ___BLANK 1 0 1.51548 4.31E+1 0 0 0 0 0 0 
  DIAM 2.21E-1 0 0 0 1 ""
  POPS 0 0 0 0 0 0 0 0 1 1 1 1 0 0 0 0
SURF 2
  COMM Ohara
  TYPE STANDARD
  FIMP 

  CURV 0.0 0 0 0 0 ""
  HIDE 0 0 0 0 0 0 0 0 0 0
  MIRR 2 0
  SLAB 4
  DISZ 6.0E-1
  GLAS BSL7 0 0 1.516330111703 6.415014514221E+1 0 0 0 0 0 0 
  DIAM 7.381142583298E-1 1 0 0 1 ""
  POPS 0 0 0 0 0 0 0 0 1 1 1 1 0 0 0 0
  FLAP 0 7.381142583298E-1 0
SURF 3
  COMM Ohara
  TYPE STANDARD
  FIMP 

  CURV -5.496921723834652400E-001 0 0 0 0 ""
  HIDE 0 0 0 0 0 0 0 0 0 0
  MIRR 2 0
  SLAB 5
  DISZ 3.84
  GLAS LAH58 0 0 1.882996700129 4.077866718122E+1 0 0 0 0 0 0 
  DIAM 1.165345757325 1 0 0 1 ""
  POPS 0 0 0 0 0 0 0 0 1 1 1 1 0 0 0 0
  FLAP 0 1.165345757325 0
SURF 4
  TYPE STANDARD
  FIMP 

  CURV -3.107809926344904900E-001 0 0 0 0 ""
  HIDE 0 0 0 0 0 0 0 0 0 0
  MIRR 2 0
  SLAB 6
  DISZ 1.0E-1
  DIAM 3.217155143057 1 0 0 1 ""
  POPS 0 0 0 0 0 0 0 0 1 1 1 1 0 0 0 0
  FLAP 0 3.217155143057 0
SURF 5
  COMM Schott
  TYPE STANDARD
  FIMP 

  CURV -4.881453892227260300E-002 0 0 0 0 ""
  HIDE 0 0 0 0 0 0 0 0 0 0
  MIRR 2 0
  SLAB 7
  DISZ 2.1418
  GLAS N-PSK58 0 0 1.569070086286 7.120558514825E+1 2.0E-2 0 0 0 0 0 
  DIAM 4.743888785474 1 0 0 1 ""
  POPS 0 0 0 0 0 0 0 0 1 1 1 1 0 0 0 0
  FLAP 0 4.743888785474 0
SURF 6
  TYPE STANDARD
  FIMP 

  CURV -1.141708909896332800E-001 0 0 0 0 ""
  HIDE 0 0 0 0 0 0 0 0 0 0
  MIRR 2 0
  SLAB 8
  DISZ 3.0E-1
  DIAM 5.180825605236 1 0 0 1 ""
  POPS 0 0 0 0 0 0 0 0 1 1 1 1 0 0 0 0
  FLAP 0 5.180825605236 0
SURF 7
  COMM Ohara
  TYPE STANDARD
  FIMP 

  CURV 9.034647874599087400E-002 0 0 0 0 ""
  HIDE 0 0 0 0 0 0 0 0 0 0
  MIRR 2 0
  SLAB 7
  DISZ 5.3
  GLAS FPL51 0 0 1.496998639872 8.161466017485E+1 0 0 0 0 0 0 
  DIAM 6.329081693361 1 0 0 1 ""
  POPS 0 0 0 0 0 0 0 0 1 1 1 1 0 0 0 0
  FLAP 0 6.329081693361 0
SURF 8
  COMM Ohara
  TYPE STANDARD
  FIMP 

  CURV -9.577993601900274000E-002 0 0 0 0 ""
  HIDE 0 0 0 0 0 0 0 0 0 0
  MIRR 2 0
  SLAB 8
  DISZ 1
  GLAS BPM4 0 0 1.613400021868 4.384153327881E+1 -8.E-3 0 0 0 0 0 
  DIAM 6.250893749681 1 0 0 1 ""
  POPS 0 0 0 0 0 0 0 0 1 1 1 1 0 0 0 0
  FLAP 0 6.250893749681 0
SURF 9
  COMM Ohara
  TYPE STANDARD
  FIMP 

  CURV 5.264875906874874600E-002 0 0 0 0 ""
  HIDE 0 0 0 0 0 0 0 0 0 0
  MIRR 2 0
  SLAB 9
  DISZ 4.5
  GLAS FPL53 0 0 1.43874980888 9.49604368568E+1 0 0 0 0 0 0 
  DIAM 6.236994518078 1 0 0 1 ""
  POPS 0 0 0 0 0 0 0 0 1 1 1 1 0 0 0 0
  FLAP 0 6.236994518078 0
SURF 10
  TYPE STANDARD
  FIMP 

  CURV -5.716866471149833300E-002 0 0 0 0 ""
  HIDE 0 0 0 0 0 0 0 0 0 0
  MIRR 2 0
  SLAB 7
  DISZ 1.5E-1
  DIAM 6.324620589435 1 0 0 1 ""
  POPS 0 0 0 0 0 0 0 0 1 1 1 1 0 0 0 0
  FLAP 0 6.324620589435 0
SURF 11
  COMM Ohara
  TYPE STANDARD
  FIMP 

  CURV 3.919877699815765800E-002 0 0 0 0 ""
  HIDE 0 0 0 0 0 0 0 0 0 0
  MIRR 2 0
  SLAB 8
  DISZ 1
  GLAS BPH40 0 0 1.676498200061 3.753738784813E+1 -4.5E-3 0 0 0 0 0 
  DIAM 6.081468810721 1 0 0 1 ""
  POPS 0 0 0 0 0 0 0 0 1 1 1 1 0 0 0 0
  FLAP 0 6.081468810721 0
SURF 12
  COMM Ohara
  TYPE STANDARD
  FIMP 

  CURV 1.538911374093965800E-001 0 0 0 0 ""
  HIDE 0 0 0 0 0 0 0 0 0 0
  MIRR 2 0
  SLAB 7
  DISZ 6.5
  GLAS FPL53 0 0 1.43874980888 9.49604368568E+1 0 0 0 0 0 0 
  DIAM 5.519473272429 1 0 0 1 ""
  POPS 0 0 0 0 0 0 0 0 1 1 1 1 0 0 0 0
  FLAP 0 5.519473272429 0
SURF 13
  COMM Ohara
  TYPE STANDARD
  FIMP 

  CURV -5.896156884942394700E-002 0 0 0 0 ""
  HIDE 0 0 0 0 0 0 0 0 0 0
  MIRR 2 0
  SLAB 8
  DISZ 1
  GLAS BPH50 0 0 1.739996847062 3.171000071474E+1 0 0 0 0 0 0 
  DIAM 5.637965664029 1 0 0 1 ""
  POPS 0 0 0 0 0 0 0 0 1 1 1 1 0 0 0 0
  FLAP 0 5.637965664029 0
SURF 14
  TYPE STANDARD
  FIMP 

  CURV -2.654392754569536900E-002 0 0 0 0 ""
  HIDE 0 0 0 0 0 0 0 0 0 0
  MIRR 2 0
  SLAB 9
  DISZ 3.0E-1
  DIAM 5.789340541282 1 0 0 1 ""
  POPS 0 0 0 0 0 0 0 0 1 1 1 1 0 0 0 0
  FLAP 0 5.789340541282 0
SURF 15
  COMM Ohara
  TYPE STANDARD
  FIMP 

  CURV 1.140745134722000500E-001 0 0 0 0 ""
  HIDE 0 0 0 0 0 0 0 0 0 0
  MIRR 2 0
  SLAB 9
  DISZ 3.1
  GLAS FPL52 0 0 1.455998738293 9.031887972713E+1 0 0 0 0 0 0 
  DIAM 5.97154347906 1 0 0 1 ""
  POPS 0 0 0 0 0 0 0 0 1 1 1 1 0 0 0 0
  FLAP 0 5.97154347906 0
SURF 16
  TYPE STANDARD
  FIMP 

  CURV 6.854775413565737700E-003 0 0 0 0 ""
  HIDE 0 0 0 0 0 0 0 0 0 0
  MIRR 2 0
  SLAB 7
  DISZ 1.5E-1
  DIAM 5.769105230496 1 0 0 1 ""
  POPS 0 0 0 0 0 0 0 0 1 1 1 1 0 0 0 0
  FLAP 0 5.769105230496 0
SURF 17
  COMM Ohara
  TYPE STANDARD
  FIMP 

  CURV 1.271294177472667200E-001 0 0 0 0 ""
  HIDE 0 0 0 0 0 0 0 0 0 0
  MIRR 2 0
  SLAB 8
  DISZ 5.734
  GLAS PHM52 0 0 1.617999437089 6.338644090297E+1 0 0 0 0 0 0 
  DIAM 5.130025764314 1 0 0 1 ""
  POPS 0 0 0 0 0 0 0 0 1 1 1 1 0 0 0 0
  FLAP 0 5.130025764314 0
SURF 18
  COMM Ohara
  TYPE STANDARD
  FIMP 

  CURV -1.130160595820666100E-001 0 0 0 0 ""
  HIDE 0 0 0 0 0 0 0 0 0 0
  MIRR 2 0
  SLAB 7
  DISZ 1
  GLAS BPH40 0 0 1.676498200061 3.753738784813E+1 -4.5E-3 0 0 0 0 0 
  DIAM 3.554735150072 1 0 0 1 ""
  POPS 0 0 0 0 0 0 0 0 1 1 1 1 0 0 0 0
  FLAP 0 3.554735150072 0
SURF 19
  TYPE STANDARD
  FIMP 

  CURV 3.262855651265987900E-001 0 0 0 0 ""
  HIDE 0 0 0 0 0 0 0 0 0 0
  MIRR 2 0
  SLAB 8
  DISZ 3.2
  DIAM 2.284339012023 1 0 0 1 ""
  POPS 0 0 0 0 0 0 0 0 1 1 1 1 0 0 0 0
  FLAP 0 2.284339012023 0
SURF 20
  COMM Ohara
  TYPE STANDARD
  FIMP 

  CURV -2.887586266639716200E-001 0 0 0 0 ""
  HIDE 0 0 0 0 0 0 0 0 0 0
  MIRR 2 0
  SLAB 9
  DISZ 2.0409
  GLAS BPH50 0 0 1.739996847062 3.171000071474E+1 0 0 0 0 0 0 
  DIAM 2.127582484933 1 0 0 1 ""
  POPS 0 0 0 0 0 0 0 0 1 1 1 1 0 0 0 0
  FLAP 0 2.127582484933 0
SURF 21
  COMM Ohara
  TYPE STANDARD
  FIMP 

  CURV 3.698595532318512500E-003 0 0 0 0 ""
  HIDE 0 0 0 0 0 0 0 0 0 0
  MIRR 2 0
  SLAB 9
  DISZ 6.7011
  GLAS TIH6 0 0 1.80518052835 2.543205672742E+1 0 0 0 0 0 0 
  DIAM 2.839755745985 1 0 0 1 ""
  POPS 0 0 0 0 0 0 0 0 1 1 1 1 0 0 0 0
  FLAP 0 2.839755745985 0
SURF 22
  TYPE STANDARD
  FIMP 

  CURV -1.178744872459804900E-001 0 0 0 0 ""
  HIDE 0 0 0 0 0 0 0 0 0 0
  MIRR 2 0
  SLAB 7
  DISZ 1.46706E+2
  DIAM 4.206395279846 1 0 0 1 ""
  POPS 0 0 0 0 0 0 0 0 1 1 1 1 0 0 0 0
  FLAP 0 4.206395279846 0
SURF 23
  COMM AC508-180-A
  TYPE STANDARD
  FIMP 

  CURV 9.112447603426280400E-003 0 0 0 0 ""
  COAT THORA
  HIDE 0 0 0 0 0 0 0 0 0 0
  MIRR 2 0
  SLAB 5
  DISZ 1.2E+1
  GLAS N-BK7 0 0 1.5 4.0E+1 0 0 0 0 0 0 
  DIAM 2.54E+1 1 0 0 1 ""
  POPS 0 0 0 0 0 0 0 0 1 1 1 1 0 0 0 0
  FLAP 0 2.54E+1 0
SURF 24
  TYPE STANDARD
  FIMP 

  CURV -1.238696890870803900E-002 0 0 0 0 ""
  COAT THORA
  HIDE 0 0 0 0 0 0 0 0 0 0
  MIRR 2 0
  SLAB 4
  DISZ 2
  GLAS SF5 0 0 1.5 4.0E+1 0 0 0 0 0 0 
  DIAM 2.54E+1 1 0 0 1 ""
  POPS 0 0 0 0 0 0 0 0 1 1 1 1 0 0 0 0
  FLAP 0 2.54E+1 0
SURF 25
  TYPE STANDARD
  FIMP 

  CURV -4.192169028255219300E-003 0 0 0 0 ""
  HIDE 0 0 0 0 0 0 0 0 0 0
  MIRR 2 0
  SLAB 2
  DISZ 3.450942011113E+2
  DIAM 2.54E+1 1 0 0 1 ""
  POPS 0 0 0 0 0 0 0 0 1 1 1 1 0 0 0 0
  FLAP 0 2.54E+1 0
SURF 26
  TYPE STANDARD
  FIMP 

  CURV 4.192169028255219300E-003 0 0 0 0 ""
  HIDE 0 0 0 0 0 0 0 0 0 0
  MIRR 2 0
  SLAB 5
  DISZ 2
  GLAS SF5 0 0 1.5 4.0E+1 0 0 0 0 0 0 
  DIAM 2.54E+1 1 0 0 1 ""
  POPS 0 0 0 0 0 0 0 0 1 1 1 1 0 0 0 0
  FLAP 0 2.54E+1 0
SURF 27
  TYPE STANDARD
  FIMP 

  CURV 1.238696890870803900E-002 0 0 0 0 ""
  COAT THORA
  HIDE 0 0 0 0 0 0 0 0 0 0
  MIRR 2 0
  SLAB 4
  DISZ 1.2E+1
  GLAS N-BK7 0 0 1.5 4.0E+1 0 0 0 0 0 0 
  DIAM 2.54E+1 1 0 0 1 ""
  POPS 0 0 0 0 0 0 0 0 1 1 1 1 0 0 0 0
  FLAP 0 2.54E+1 0
SURF 28
  COMM AC508-180-A
  TYPE STANDARD
  FIMP 

  CURV -9.112447603426280400E-003 0 0 0 0 ""
  COAT THORA
  HIDE 0 0 0 0 0 0 0 0 0 0
  MIRR 2 0
  SLAB 2
  DISZ 1.46709E+2
  DIAM 2.54E+1 1 0 0 1 ""
  POPS 0 0 0 0 0 0 0 0 1 1 1 1 0 0 0 0
  FLAP 0 2.54E+1 0
SURF 29
  TYPE STANDARD
  FIMP 

  CURV 1.178744872459804900E-001 0 0 0 0 ""
  HIDE 0 0 0 0 0 0 0 0 0 0
  MIRR 2 0
  SLAB 1
  DISZ 6.7011
  GLAS TIH6 0 0 1.80518052835 2.543205672742E+1 0 0 0 0 0 0 
  DIAM 4.206395279846 1 0 0 1 ""
  POPS 0 0 0 0 0 0 0 0 1 1 1 1 0 0 0 0
  FLAP 0 4.206395279846 0
SURF 30
  COMM Ohara
  TYPE STANDARD
  FIMP 

  CURV -3.698595532318512500E-003 0 0 0 0 ""
  HIDE 0 0 0 0 0 0 0 0 0 0
  MIRR 2 0
  SLAB 2
  DISZ 2.0409
  GLAS BPH50 0 0 1.739996847062 3.171000071474E+1 0 0 0 0 0 0 
  DIAM 2.839755745985 1 0 0 1 ""
  POPS 0 0 0 0 0 0 0 0 1 1 1 1 0 0 0 0
  FLAP 0 2.839755745985 0
SURF 31
  COMM Ohara
  TYPE STANDARD
  FIMP 

  CURV 2.887586266639716200E-001 0 0 0 0 ""
  HIDE 0 0 0 0 0 0 0 0 0 0
  MIRR 2 0
  SLAB 4
  DISZ 3.2
  DIAM 2.127582484933 1 0 0 1 ""
  POPS 0 0 0 0 0 0 0 0 1 1 1 1 0 0 0 0
  FLAP 0 2.127582484933 0
SURF 32
  TYPE STANDARD
  FIMP 

  CURV -3.262855651265987900E-001 0 0 0 0 ""
  HIDE 0 0 0 0 0 0 0 0 0 0
  MIRR 2 0
  SLAB 5
  DISZ 1
  GLAS BPH40 0 0 1.676498200061 3.753738784813E+1 -4.5E-3 0 0 0 0 0 
  DIAM 2.284339012023 1 0 0 1 ""
  POPS 0 0 0 0 0 0 0 0 1 1 1 1 0 0 0 0
  FLAP 0 2.284339012023 0
SURF 33
  COMM Ohara
  TYPE STANDARD
  FIMP 

  CURV 1.130160595820666100E-001 0 0 0 0 ""
  HIDE 0 0 0 0 0 0 0 0 0 0
  MIRR 2 0
  SLAB 6
  DISZ 5.734
  GLAS PHM52 0 0 1.617999437089 6.338644090297E+1 0 0 0 0 0 0 
  DIAM 3.554735150072 1 0 0 1 ""
  POPS 0 0 0 0 0 0 0 0 1 1 1 1 0 0 0 0
  FLAP 0 3.554735150072 0
SURF 34
  COMM Ohara
  TYPE STANDARD
  FIMP 

  CURV -1.271294177472667200E-001 0 0 0 0 ""
  HIDE 0 0 0 0 0 0 0 0 0 0
  MIRR 2 0
  SLAB 7
  DISZ 1.5E-1
  DIAM 5.130025764314 1 0 0 1 ""
  POPS 0 0 0 0 0 0 0 0 1 1 1 1 0 0 0 0
  FLAP 0 5.130025764314 0
SURF 35
  TYPE STANDARD
  FIMP 

  CURV -6.854775413565737700E-003 0 0 0 0 ""
  HIDE 0 0 0 0 0 0 0 0 0 0
  MIRR 2 0
  SLAB 8
  DISZ 3.1
  GLAS FPL52 0 0 1.455998738293 9.031887972713E+1 0 0 0 0 0 0 
  DIAM 5.769105230496 1 0 0 1 ""
  POPS 0 0 0 0 0 0 0 0 1 1 1 1 0 0 0 0
  FLAP 0 5.769105230496 0
SURF 36
  COMM Ohara
  TYPE STANDARD
  FIMP 

  CURV -1.140745134722000500E-001 0 0 0 0 ""
  HIDE 0 0 0 0 0 0 0 0 0 0
  MIRR 2 0
  SLAB 7
  DISZ 3.0E-1
  DIAM 5.97154347906 1 0 0 1 ""
  POPS 0 0 0 0 0 0 0 0 1 1 1 1 0 0 0 0
  FLAP 0 5.97154347906 0
SURF 37
  TYPE STANDARD
  FIMP 

  CURV 2.654392754569536900E-002 0 0 0 0 ""
  HIDE 0 0 0 0 0 0 0 0 0 0
  MIRR 2 0
  SLAB 8
  DISZ 1
  GLAS BPH50 0 0 1.739996847062 3.171000071474E+1 0 0 0 0 0 0 
  DIAM 5.789340541282 1 0 0 1 ""
  POPS 0 0 0 0 0 0 0 0 1 1 1 1 0 0 0 0
  FLAP 0 5.789340541282 0
SURF 38
  COMM Ohara
  TYPE STANDARD
  FIMP 

  CURV 5.896156884942394700E-002 0 0 0 0 ""
  HIDE 0 0 0 0 0 0 0 0 0 0
  MIRR 2 0
  SLAB 9
  DISZ 6.5
  GLAS FPL53 0 0 1.43874980888 9.49604368568E+1 0 0 0 0 0 0 
  DIAM 5.637965664029 1 0 0 1 ""
  POPS 0 0 0 0 0 0 0 0 1 1 1 1 0 0 0 0
  FLAP 0 5.637965664029 0
SURF 39
  COMM Ohara
  TYPE STANDARD
  FIMP 

  CURV -1.538911374093965800E-001 0 0 0 0 ""
  HIDE 0 0 0 0 0 0 0 0 0 0
  MIRR 2 0
  SLAB 7
  DISZ 1
  GLAS BPH40 0 0 1.676498200061 3.753738784813E+1 -4.5E-3 0 0 0 0 0 
  DIAM 5.519473272429 1 0 0 1 ""
  POPS 0 0 0 0 0 0 0 0 1 1 1 1 0 0 0 0
  FLAP 0 5.519473272429 0
SURF 40
  COMM Ohara
  TYPE STANDARD
  FIMP 

  CURV -3.919877699815765800E-002 0 0 0 0 ""
  HIDE 0 0 0 0 0 0 0 0 0 0
  MIRR 2 0
  SLAB 8
  DISZ 1.5E-1
  DIAM 6.081468810721 1 0 0 1 ""
  POPS 0 0 0 0 0 0 0 0 1 1 1 1 0 0 0 0
  FLAP 0 6.081468810721 0
SURF 41
  TYPE STANDARD
  FIMP 

  CURV 5.716866471149833300E-002 0 0 0 0 ""
  HIDE 0 0 0 0 0 0 0 0 0 0
  MIRR 2 0
  SLAB 7
  DISZ 4.5
  GLAS FPL53 0 0 1.43874980888 9.49604368568E+1 0 0 0 0 0 0 
  DIAM 6.324620589435 1 0 0 1 ""
  POPS 0 0 0 0 0 0 0 0 1 1 1 1 0 0 0 0
  FLAP 0 6.324620589435 0
SURF 42
  COMM Ohara
  TYPE STANDARD
  FIMP 

  CURV -5.264875906874874600E-002 0 0 0 0 ""
  HIDE 0 0 0 0 0 0 0 0 0 0
  MIRR 2 0
  SLAB 8
  DISZ 1
  GLAS BPM4 0 0 1.613400021868 4.384153327881E+1 -8.E-3 0 0 0 0 0 
  DIAM 6.236994518078 1 0 0 1 ""
  POPS 0 0 0 0 0 0 0 0 1 1 1 1 0 0 0 0
  FLAP 0 6.236994518078 0
SURF 43
  COMM Ohara
  TYPE STANDARD
  FIMP 

  CURV 9.577993601900274000E-002 0 0 0 0 ""
  HIDE 0 0 0 0 0 0 0 0 0 0
  MIRR 2 0
  SLAB 9
  DISZ 5.3
  GLAS FPL51 0 0 1.496998639872 8.161466017485E+1 0 0 0 0 0 0 
  DIAM 6.250893749681 1 0 0 1 ""
  POPS 0 0 0 0 0 0 0 0 1 1 1 1 0 0 0 0
  FLAP 0 6.250893749681 0
SURF 44
  COMM Ohara
  TYPE STANDARD
  FIMP 

  CURV -9.034647874599087400E-002 0 0 0 0 ""
  HIDE 0 0 0 0 0 0 0 0 0 0
  MIRR 2 0
  SLAB 9
  DISZ 3.0E-1
  DIAM 6.329081693361 1 0 0 1 ""
  POPS 0 0 0 0 0 0 0 0 1 1 1 1 0 0 0 0
  FLAP 0 6.329081693361 0
SURF 45
  TYPE STANDARD
  FIMP 

  CURV 1.141708909896332800E-001 0 0 0 0 ""
  HIDE 0 0 0 0 0 0 0 0 0 0
  MIRR 2 0
  SLAB 7
  DISZ 2.1418
  GLAS N-PSK58 0 0 1.569070086286 7.120558514825E+1 2.0E-2 0 0 0 0 0 
  DIAM 5.180825605236 1 0 0 1 ""
  POPS 0 0 0 0 0 0 0 0 1 1 1 1 0 0 0 0
  FLAP 0 5.180825605236 0
SURF 46
  COMM Schott
  TYPE STANDARD
  FIMP 

  CURV 4.881453892227260300E-002 0 0 0 0 ""
  HIDE 0 0 0 0 0 0 0 0 0 0
  MIRR 2 0
  SLAB 8
  DISZ 1.0E-1
  DIAM 4.743888785474 1 0 0 1 ""
  POPS 0 0 0 0 0 0 0 0 1 1 1 1 0 0 0 0
  FLAP 0 4.743888785474 0
SURF 47
  TYPE STANDARD
  FIMP 

  CURV 3.107809926344904900E-001 0 0 0 0 ""
  HIDE 0 0 0 0 0 0 0 0 0 0
  MIRR 2 0
  SLAB 7
  DISZ 3.84
  GLAS LAH58 0 0 1.882996700129 4.077866718122E+1 0 0 0 0 0 0 
  DIAM 3.217155143057 1 0 0 1 ""
  POPS 0 0 0 0 0 0 0 0 1 1 1 1 0 0 0 0
  FLAP 0 3.217155143057 0
SURF 48
  COMM Ohara
  TYPE STANDARD
  FIMP 

  CURV 5.496921723834652400E-001 0 0 0 0 ""
  HIDE 0 0 0 0 0 0 0 0 0 0
  MIRR 2 0
  SLAB 8
  DISZ 6.0E-1
  GLAS BSL7 0 0 1.516330111703 6.415014514221E+1 0 0 0 0 0 0 
  DIAM 1.165345757325 1 0 0 1 ""
  POPS 0 0 0 0 0 0 0 0 1 1 1 1 0 0 0 0
  FLAP 0 1.165345757325 0
SURF 49
  COMM Ohara
  TYPE STANDARD
  FIMP 

  CURV -0.0 0 0 0 0 ""
  HIDE 0 0 0 0 0 0 0 0 0 0
  MIRR 2 0
  SLAB 9
  DISZ 1.4E-1
  GLAS ___BLANK 1 0 1.51548 4.31E+1 0 0 0 0 0 0 
  DIAM 7.381142583298E-1 1 0 0 1 ""
  POPS 0 0 0 0 0 0 0 0 1 1 1 1 0 0 0 0
  FLAP 0 7.381142583298E-1 0
SURF 50
  COMM oil
  TYPE STANDARD
  FIMP 

  CURV -0.0 0 0 0 0 ""
  HIDE 0 0 0 0 0 0 0 0 0 0
  MIRR 2 0
  SLAB 9
  DISZ 2.098876504985E-1
  GLAS ___BLANK 1 0 1.52 5.6E+1 0 0 0 0 0 0 
  MAZH 0 0
  DIAM 8.0E-1 1 0 0 1 ""
  POPS 0 0 0 0 0 0 0 0 1 1 1 1 0 0 0 0
  FLAP 0 8.0E-1 0
SURF 51
  TYPE STANDARD
  FIMP 

  CURV 0.0 0 0 0 0 ""
  HIDE 0 0 0 0 0 0 0 0 0 0
  MIRR 2 0
  SLAB 3
  DISZ 0
  DIAM 1.002033447223E-1 0 0 0 1 ""
  POPS 0 0 0 0 0 0 0 0 1 1 1 1 0 0 0 0
CONF 9 0 0 0 0 0 0 0 0 0
DMFS 0 0 0 0 0 0 0 0 0 0
TOL TOFF   0   0              0              0   0 0 0 0
MNUM 9 1
THIC   0   1 1.300000000000E-001 0 0 0 1 1 1.000000000000E+000 0.000000000000E+000 0 "" 0
THIC   0   2 1.400000000000E-001 0 0 0 1 1 1.000000000000E+000 0.000000000000E+000 0 "" 0
THIC   0   3 1.500000000000E-001 0 0 0 1 1 1.000000000000E+000 0.000000000000E+000 0 "" 0
THIC   0   4 1.600000000000E-001 0 0 0 1 1 1.000000000000E+000 0.000000000000E+000 0 "" 0
THIC   0   5 1.700000000000E-001 0 0 0 1 1 1.000000000000E+000 0.000000000000E+000 0 "" 0
THIC   0   6 1.800000000000E-001 0 0 0 1 1 1.000000000000E+000 0.000000000000E+000 0 "" 0
THIC   0   7 1.900000000000E-001 0 0 0 1 1 1.000000000000E+000 0.000000000000E+000 0 "" 0
THIC   0   8 2.000000000000E-001 0 0 0 1 1 1.000000000000E+000 0.000000000000E+000 0 "" 0
THIC   0   9 2.100000000000E-001 0 0 0 1 1 1.000000000000E+000 0.000000000000E+000 0 "" 0
